egret/models/tests/uc_test_instances/tiny_uc_12_results.json
{"elements": {"load": {}, "bus": {"Arne": {"id": "113", "base_kv": 230.0, "matpower_bustype": "ref", "vm": 1.03943, "va": {"data_type": "time_series", "values": [-0.0, -0.0, -0.0, -0.0]}, "v_min": 0.95, "v_max": 1.05, "area": "1", "zone": "14.0", "p_balance_violation": {"data_type": "time_series", "values": [-22.0, -22.0, -0.0, -0.0]}, "pl": {"data_type": "time_series", "values": [0.0, 0.0, 0.0, 0.0]}}}, "generator": {"gen": {"bus": "Arne", "in_service": true, "mbase": 100.0, "pg": {"data_type": "time_series", "values": [22.0, 22.0, 0.0, 0.0]}, "qg": 10.99, "p_min": 22.0, "p_max": 55.00000000000001, "q_min": -15.0, "q_max": 19.0, "ramp_q": 3.7000000000000006, "fuel": "NG", "unit_type": "CT", "area": "3", "zone": "32.0", "generator_type": "thermal", "p_fuel": {"data_type": "fuel_curve", "values": [[22.0, 338.69], [33.0, 434.31], [44.0, 542.93], [55.00000000000001, 652.26]]}, "startup_fuel": [[2.2, 14.574]], "non_fuel_startup_cost": 0.0, "shutdown_cost": 0.0, "agc_capable": true, "p_min_agc": 22.0, "p_max_agc": 55.00000000000001, "ramp_agc": 3.7000000000000006, "ramp_up_60min": 222.00000000000003, "ramp_down_60min": 222.00000000000003, "fuel_cost": 3.88722, "startup_capacity": 22.0, "shutdown_capacity": 22.0, "min_up_time": 2.2, "min_down_time": 2.2, "initial_status": 1, "initial_p_output": 0.0, "initial_q_output": 0.0, "future_status": 0.0, "startup_curve": [], "shutdown_curve": [], "commitment": {"data_type": "time_series", "values": [1, 1, 0, 0]}, "commitment_cost": {"data_type": "time_series", "values": [1316.5625418, 1316.5625418, 0.0, 0.0]}, "production_cost": {"data_type": "time_series", "values": [0.0, 0.0, 0.0, 0.0]}, "headroom": {"data_type": "time_series", "values": [33.00000000000001, 0.0, 0.0, 0.0]}}}, "branch": {}, "interface": {}, "storage": {}, "dc_branch": {}, "zone": {}, "area": {}}, "system": {"name": "RTS-GMLC", "baseMVA": 100.0, "reference_bus": "Arne", "reference_bus_angle": 0, "time_period_length_minutes": 60, "time_keys": ["1", "2", "3", "4"], "total_cost": 442633.1250836}}